* CD4007 NMOS and PMOS transistor SPICE models
* Typical  
 
.model CD4007_nmos NMOS 
+ Level=1    Gamma = 2.05  
+ Tox=1200n  Phi=.6     Rs=0      Kp=111u  Vto=1.4    Lambda=0.01
+ Rd=0       Cbd=2.0p   Cbs=2.0p  Pb=.8    Cgso=0.1p  
+ Cgdo=0.1p  Is=16.64p  N=1
  
.model CD4007_pmos  PMOS 
+ Level=1    Gamma = 1.65  
+ Tox=1200n  Phi=.6     Rs=0      Kp=55u  Vto=-1.2   Lambda=0.04
+ Rd=0       Cbd=4.0p   Cbs=4.0p  Pb=.8   Cgso=0.2p  
+ Cgdo=0.2p  Is=16.64p  N=1