Version 4
SHEET 1 880 756
WIRE -1584 -192 -1664 -192
WIRE -1664 -144 -1664 -192
WIRE 496 -64 112 -64
WIRE 496 48 496 -64
WIRE -1632 64 -1680 64
WIRE 480 96 304 96
WIRE 688 96 576 96
WIRE -1680 128 -1680 64
WIRE -1680 256 -1680 208
WIRE 304 272 304 96
WIRE 304 272 128 272
WIRE 688 272 688 96
WIRE 832 272 688 272
WIRE -1632 368 -1680 368
WIRE -1680 416 -1680 368
WIRE -768 432 -768 352
WIRE 304 448 304 272
WIRE 464 448 304 448
WIRE 688 448 688 272
WIRE 688 448 560 448
WIRE -816 512 -848 512
WIRE -1680 560 -1680 496
WIRE -768 560 -768 528
WIRE -528 560 -768 560
WIRE -848 576 -848 512
WIRE -848 576 -992 576
WIRE -768 576 -768 560
WIRE 544 576 544 496
WIRE 544 576 112 576
WIRE -848 656 -848 576
WIRE -816 656 -848 656
WIRE -768 736 -768 672
FLAG -1680 256 0
FLAG -1680 560 0
FLAG -1632 64 CLK
FLAG -1632 368 TRI
FLAG 128 272 TRI
FLAG 112 -64 CLK
FLAG -768 736 0
FLAG -1664 -64 0
FLAG -1584 -192 VDD
FLAG -768 352 VDD
FLAG 112 576 !CLK
FLAG -992 576 CLK
FLAG -528 560 !CLK
SYMBOL nmos 576 48 R90
SYMATTR InstName M1
SYMATTR Value CD4007_nmos
SYMBOL pmos 464 496 R270
SYMATTR InstName M2
SYMATTR Value CD4007_pmos
SYMBOL Misc\\signal -1680 112 R0
WINDOW 123 0 0 Left 0
WINDOW 39 0 0 Left 0
SYMATTR InstName V1
SYMATTR Value PULSE(0 10 0 1u 1u 50u 100u 10)
SYMBOL Misc\\signal -1680 400 R0
WINDOW 123 0 0 Left 0
WINDOW 39 0 0 Left 0
SYMATTR InstName V2
SYMATTR Value SINE(5 10 500 0 0 0 1)
SYMBOL nmos -816 576 R0
SYMATTR InstName M4
SYMATTR Value CD4007_nmos
SYMBOL pmos -816 432 R0
SYMATTR InstName M3
SYMATTR Value CD4007_pmos
SYMBOL voltage -1664 -160 R0
SYMATTR InstName V3
TEXT -1680 -336 Left 2 !.lib CD4007.lib
TEXT -1712 696 Left 2 !.tran 0 10ms 0 1u
