Version 4.1
SHEET 1 1700 680
WIRE -32 -160 -128 -160
WIRE -32 -128 -32 -160
WIRE -128 -80 -128 -160
WIRE -176 -64 -224 -64
WIRE -32 -16 -32 -48
WIRE -368 32 -592 32
WIRE -224 32 -224 -64
WIRE -224 32 -368 32
WIRE -128 32 -128 16
WIRE 112 32 -128 32
WIRE -128 48 -128 32
WIRE 112 80 112 32
WIRE -592 96 -592 32
WIRE -224 128 -224 32
WIRE -176 128 -224 128
WIRE 96 160 96 128
WIRE 96 160 -32 160
WIRE -128 176 -128 144
WIRE -32 208 -32 160
WIRE 96 208 96 160
WIRE 192 208 192 128
WIRE -592 224 -592 176
WIRE -32 320 -32 288
WIRE -368 384 -368 32
WIRE 176 384 176 256
WIRE 176 384 -368 384
FLAG -32 320 0
FLAG -128 176 0
FLAG -592 224 0
FLAG -32 -16 0
SYMBOL nmos 96 256 R270
WINDOW 0 7 132 VRight 2
WINDOW 3 43 129 VRight 2
SYMATTR InstName M
SYMATTR Value CD4007_nmos
SYMBOL pmos 192 80 R90
WINDOW 0 -17 7 VRight 2
WINDOW 3 -52 -117 VRight 2
SYMATTR InstName P
SYMATTR Value CD4007_pmos
SYMBOL pmos -176 16 M180
WINDOW 0 -20 114 Left 2
WINDOW 3 -142 144 Left 2
SYMATTR InstName P_inv
SYMATTR Value CD4007_pmos
SYMBOL nmos -176 48 R0
WINDOW 0 31 121 Right 2
WINDOW 3 29 146 Right 2
SYMATTR InstName M_inv
SYMATTR Value CD4007_nmos
SYMBOL voltage -32 192 R0
WINDOW 3 -388 96 Left 2
WINDOW 123 0 0 Left 0
WINDOW 39 0 0 Left 0
SYMATTR InstName Vin
SYMATTR Value PULSE(0 10 0 0.1m 0.1m 0 0.2m)
SYMBOL voltage -592 80 R0
WINDOW 3 -379 103 Left 2
WINDOW 123 0 0 Left 0
WINDOW 39 0 0 Left 0
SYMATTR InstName Vclk
SYMATTR Value PULSE(0 10 0 1n 1n 100u 202u)
SYMBOL voltage -32 -144 R0
WINDOW 123 0 0 Left 0
WINDOW 39 0 0 Left 0
SYMATTR InstName Vdd
SYMATTR Value 10
TEXT 528 144 Left 2 !.lib CD4007.lib
TEXT 528 88 Left 2 !.tran 2m
