Version 4
SHEET 1 880 680
SYMBOL OPAx391 208 144 R0
SYMATTR InstName U1
TEXT -688 -280 Left 2 !.lib C:\\Users\\skipi\\Desktop\\Leo\\PoliTo\\Anno4\\Semestre2\\ANALabs\\LAB3\\OPAx391.LIB
TEXT -690 234 Left 2 !.ac dec 1000 1 10000
