Version 4
SHEET 1 2964 1796
WIRE 880 -32 656 -32
WIRE 976 -32 880 -32
WIRE 160 144 160 -32
WIRE 208 144 160 144
WIRE 576 144 464 144
WIRE 656 144 656 -32
WIRE 208 256 64 256
WIRE 880 256 880 -32
WIRE 880 256 464 256
WIRE 64 320 64 256
WIRE 592 416 464 416
WIRE 688 416 592 416
WIRE 592 448 592 416
WIRE -656 640 -656 608
WIRE -1008 992 -1344 992
WIRE -768 992 -1008 992
WIRE -544 992 -768 992
WIRE 64 992 -544 992
WIRE 192 992 64 992
WIRE -768 1024 -768 992
WIRE 64 1040 64 992
WIRE -544 1072 -544 992
WIRE 864 1152 704 1152
WIRE 1232 1152 864 1152
WIRE 2640 1152 1232 1152
WIRE -1008 1168 -1008 992
WIRE -768 1168 -768 1104
WIRE -320 1168 -768 1168
WIRE 64 1168 64 1120
WIRE 64 1168 -64 1168
WIRE 704 1184 704 1152
WIRE -1344 1216 -1344 992
WIRE 2384 1216 1936 1216
WIRE 2592 1216 2448 1216
WIRE -544 1280 -544 1136
WIRE -320 1280 -544 1280
WIRE 192 1280 192 992
WIRE 192 1280 -64 1280
WIRE 864 1280 864 1152
WIRE 704 1296 704 1264
WIRE -768 1360 -768 1168
WIRE 2640 1392 2640 1152
WIRE 2640 1392 2496 1392
WIRE -544 1408 -544 1280
WIRE 1232 1408 1232 1152
WIRE 1232 1408 1184 1408
WIRE 1808 1408 1664 1408
WIRE 1936 1408 1936 1216
WIRE 1936 1408 1888 1408
WIRE 2000 1408 1936 1408
WIRE 2176 1408 2080 1408
WIRE 2368 1408 2176 1408
WIRE 1056 1424 496 1424
WIRE 2640 1424 2496 1424
WIRE 64 1440 -64 1440
WIRE 240 1440 240 1392
WIRE 384 1440 240 1440
WIRE 496 1440 496 1424
WIRE 496 1440 464 1440
WIRE 1328 1440 1184 1440
WIRE 2368 1440 2320 1440
WIRE 1056 1456 1008 1456
WIRE 2176 1456 2176 1408
WIRE 2592 1456 2592 1216
WIRE 2592 1456 2496 1456
WIRE 2848 1456 2592 1456
WIRE 1248 1472 1184 1472
WIRE 1536 1472 1536 1392
WIRE 1536 1472 1248 1472
WIRE 1664 1472 1664 1408
WIRE 1664 1472 1536 1472
WIRE -1008 1488 -1008 1248
WIRE -768 1488 -768 1440
WIRE -768 1488 -1008 1488
WIRE 64 1488 64 1440
WIRE 864 1488 864 1360
WIRE 1008 1488 1008 1456
WIRE 1008 1488 864 1488
WIRE 496 1536 496 1440
WIRE 864 1552 864 1488
WIRE 2320 1568 2320 1440
WIRE 2592 1568 2592 1456
WIRE 2592 1568 2320 1568
WIRE 1008 1584 1008 1488
WIRE 1072 1584 1008 1584
WIRE 1248 1584 1248 1472
WIRE 1248 1584 1152 1584
WIRE -1344 1712 -1344 1296
WIRE -544 1712 -544 1488
WIRE -544 1712 -1344 1712
WIRE 64 1712 64 1568
WIRE 64 1712 -544 1712
WIRE 496 1712 496 1600
WIRE 496 1712 64 1712
WIRE 864 1712 864 1632
WIRE 864 1712 496 1712
WIRE 1328 1712 1328 1440
WIRE 1328 1712 864 1712
WIRE 2176 1712 2176 1520
WIRE 2176 1712 1328 1712
WIRE 2640 1712 2640 1424
WIRE 2640 1712 2176 1712
WIRE -1344 1744 -1344 1712
WIRE -544 1744 -544 1712
WIRE 64 1744 64 1712
WIRE 496 1744 496 1712
WIRE 864 1744 864 1712
WIRE 1328 1744 1328 1712
WIRE 2176 1760 2176 1712
WIRE 2640 1760 2640 1712
FLAG -1344 1744 0
FLAG 976 -32 Val
FLAG 64 320 0
FLAG 64 1744 0
FLAG 704 1296 0
FLAG 864 1744 0
FLAG -656 720 0
FLAG 496 1744 0
FLAG -656 592 Vc
FLAG -544 1744 0
FLAG 1328 1744 0
FLAG 1536 1392 Vx
FLAG 240 1392 Vc
FLAG 2640 1760 0
FLAG 2176 1760 0
SYMBOL OpAmps\\LTC6101 -192 1296 R0
SYMATTR InstName U1
SYMBOL res -752 1120 R180
WINDOW 0 36 76 Left 2
WINDOW 3 36 40 Left 2
SYMATTR InstName Ro
SYMATTR Value 3m
SYMBOL voltage -1344 1200 R0
WINDOW 123 0 0 Left 0
WINDOW 39 0 0 Left 0
SYMATTR InstName VAL
SYMATTR Value 60
SYMBOL res 80 1136 R180
WINDOW 0 36 76 Left 2
WINDOW 3 36 40 Left 2
SYMATTR InstName Rs
SYMATTR Value 1k
SYMBOL res 48 1472 R0
SYMATTR InstName Rx
SYMATTR Value 10k
SYMBOL current -768 1360 R0
WINDOW 0 -32 40 VBottom 2
WINDOW 3 32 40 VTop 2
WINDOW 123 60 40 VTop 2
WINDOW 39 0 0 Left 0
SYMATTR InstName I1
SYMATTR Value SINE(3.3 2.7 45)
SYMATTR Value2 AC 1 0
SYMBOL voltage -1008 1152 R0
WINDOW 0 -32 56 VBottom 2
WINDOW 3 32 56 VTop 2
WINDOW 123 0 0 Left 0
WINDOW 39 0 0 Left 0
SYMATTR InstName V2
SYMATTR Value 6
SYMBOL voltage 704 1168 R0
WINDOW 123 0 0 Left 0
WINDOW 39 0 0 Left 0
SYMATTR InstName VDD
SYMATTR Value 3.3
SYMBOL OPAx391 1120 1440 R0
SYMATTR InstName U3
SYMBOL res 1168 1568 R90
WINDOW 0 0 56 VBottom 2
WINDOW 3 32 56 VTop 2
SYMATTR InstName R2
SYMATTR Value 20k
SYMBOL res 880 1376 R180
WINDOW 0 36 76 Left 2
WINDOW 3 36 40 Left 2
SYMATTR InstName R1
SYMATTR Value 180k
SYMBOL res 880 1648 R180
WINDOW 0 36 76 Left 2
WINDOW 3 36 40 Left 2
SYMATTR InstName R0
SYMATTR Value 1.05k
SYMBOL Misc\\signal -656 624 R0
WINDOW 123 24 132 Left 2
WINDOW 39 0 0 Left 0
SYMATTR Value2 AC 1 0
SYMATTR InstName V4
SYMATTR Value SINE(99m 81m 45)
SYMBOL res 480 1424 R90
WINDOW 0 0 56 VBottom 2
WINDOW 3 32 56 VTop 2
SYMATTR InstName R4
SYMATTR Value 15k
SYMBOL cap 512 1600 R180
WINDOW 0 24 56 Left 2
WINDOW 3 24 8 Left 2
SYMATTR InstName C2
SYMATTR Value 100n
SYMBOL res 1904 1392 R90
WINDOW 0 0 56 VBottom 2
WINDOW 3 32 56 VTop 2
SYMATTR InstName R3
SYMATTR Value 6.19k
SYMBOL res 2096 1392 R90
WINDOW 0 0 56 VBottom 2
WINDOW 3 32 56 VTop 2
SYMATTR InstName R5
SYMATTR Value 9.76k
SYMBOL cap 2160 1456 R0
SYMATTR InstName C1
SYMATTR Value 100n
SYMBOL cap 2448 1200 R90
WINDOW 0 0 32 VBottom 2
WINDOW 3 32 32 VTop 2
SYMATTR InstName C4
SYMATTR Value 383n
SYMBOL OPAx391 2432 1424 R0
SYMATTR InstName U2
SYMBOL zener -528 1136 R180
WINDOW 0 24 64 Left 2
WINDOW 3 -213 37 Left 2
SYMATTR InstName D1
SYMATTR Value BZX84C6V2L
SYMBOL res -560 1392 R0
SYMATTR InstName R6
SYMATTR Value 500k
TEXT -320 728 Left 2 !.tran 0 0.2 0
TEXT -320 752 Left 2 ;.ac dec 100 0.1 10000
