Version 4
SHEET 1 1812 860
WIRE 240 -384 240 -432
WIRE 240 -256 240 -304
WIRE 416 -192 -112 -192
WIRE 656 -192 496 -192
WIRE -112 -32 -112 -192
WIRE -64 -32 -112 -32
WIRE 160 -32 16 -32
WIRE 256 -32 160 -32
WIRE 656 -32 656 -192
WIRE 656 -32 336 -32
WIRE 880 -32 656 -32
WIRE 976 -32 880 -32
WIRE 1312 64 1312 32
WIRE 1472 80 1472 48
WIRE 160 144 160 -32
WIRE 208 144 160 144
WIRE 576 144 464 144
WIRE 656 144 656 -32
WIRE 208 256 64 256
WIRE 880 256 880 -32
WIRE 880 256 464 256
WIRE 64 320 64 256
WIRE 592 416 464 416
WIRE 592 448 592 416
WIRE 1072 448 1040 448
WIRE 1184 448 1152 448
WIRE 1216 448 1184 448
WIRE 1424 480 1424 400
WIRE 1424 480 1376 480
WIRE 1216 496 1216 448
WIRE 1248 496 1216 496
WIRE 1520 512 1520 400
WIRE 1520 512 1376 512
WIRE 928 528 864 528
WIRE 1056 528 1008 528
WIRE 1200 528 1056 528
WIRE 1248 528 1200 528
WIRE 1440 544 1376 544
WIRE 1520 544 1440 544
WIRE 592 576 592 528
WIRE 1056 592 1056 528
WIRE 1200 656 1200 528
WIRE 1264 656 1200 656
WIRE 1440 656 1440 544
WIRE 1440 656 1344 656
WIRE 1056 704 1056 672
FLAG 240 -256 0
FLAG 240 -432 Val
FLAG 976 -32 Val
FLAG 64 320 0
FLAG 592 576 0
FLAG 1312 144 0
FLAG 1312 32 Vdd
FLAG 1056 704 0
FLAG 864 528 Vdd
FLAG 1472 160 0
FLAG 1472 48 Vc
FLAG 1520 400 0
FLAG 1424 400 Vdd
FLAG 1040 448 Vc
FLAG 1184 384 0
FLAG 1152 448 Vc
FLAG 1520 624 0
SYMBOL OpAmps\\LTC6101 336 272 R0
SYMATTR InstName U1
SYMBOL res 240 -16 R270
WINDOW 0 32 56 VTop 2
WINDOW 3 0 56 VBottom 2
SYMATTR InstName Ro
SYMATTR Value 3m
SYMBOL voltage 240 -400 R0
WINDOW 123 0 0 Left 0
WINDOW 39 0 0 Left 0
SYMATTR InstName V1
SYMATTR Value 60
SYMBOL res 672 128 R90
WINDOW 0 0 56 VBottom 2
WINDOW 3 32 56 VTop 2
SYMATTR InstName Rs
SYMATTR Value 1k
SYMBOL res 576 432 R0
SYMATTR InstName Rx
SYMATTR Value 10k
SYMBOL current 16 -32 R90
WINDOW 0 -32 40 VBottom 2
WINDOW 3 32 40 VTop 2
WINDOW 123 -4 40 VBottom 2
WINDOW 39 0 0 Left 0
SYMATTR InstName I1
SYMATTR Value 6
SYMBOL voltage 512 -192 R90
WINDOW 0 -32 56 VBottom 2
WINDOW 3 32 56 VTop 2
WINDOW 123 0 0 Left 0
WINDOW 39 0 0 Left 0
SYMATTR InstName V2
SYMATTR Value 6
SYMBOL voltage 1312 48 R0
WINDOW 123 0 0 Left 0
WINDOW 39 0 0 Left 0
SYMATTR InstName V3
SYMATTR Value 3.3
SYMBOL OPAx391 1312 512 R0
SYMATTR InstName U3
SYMBOL res 1360 640 R90
WINDOW 0 0 56 VBottom 2
WINDOW 3 32 56 VTop 2
SYMATTR InstName R2
SYMATTR Value 20k
SYMBOL res 1024 512 R90
WINDOW 0 0 56 VBottom 2
WINDOW 3 32 56 VTop 2
SYMATTR InstName R1
SYMATTR Value 180k
SYMBOL res 1072 688 R180
WINDOW 0 36 76 Left 2
WINDOW 3 36 40 Left 2
SYMATTR InstName R0
SYMATTR Value 1.05k
SYMBOL voltage 1472 64 R0
WINDOW 123 24 124 Left 2
WINDOW 39 0 0 Left 0
SYMATTR Value2 AC 1
SYMATTR InstName V4
SYMATTR Value SINE(99m 81m 45)
SYMBOL res 1168 432 R90
WINDOW 0 0 56 VBottom 2
WINDOW 3 32 56 VTop 2
SYMATTR InstName R3
SYMATTR Value 15k
SYMBOL cap 1168 384 R0
SYMATTR InstName C1
SYMATTR Value 100n
SYMBOL res 1504 528 R0
SYMATTR InstName R4
SYMATTR Value 10k
TEXT -320 48 Left 2 ;.op
TEXT 656 -328 Left 2 ;.lib OPAx391.lib
TEXT -312 128 Left 2 ;.ac dec 1000 1 1Meg
TEXT -322 728 Left 2 !.tran 0 0.2 0
